tests/matpower_test_cases/nesta_case189_edin.m
%%%%%%%%%%%%%%%%%%%%%%%%%%%%%%%%%%%%%%%%%%%%%%%%%%%%%%%%%%%%%%%%%%%%%%%%%%%
%%%%                                                                  %%%%%
%%%%      NICTA Energy System Test Case Archive (NESTA) - v0.3.0      %%%%%
%%%%              Optimal Power Flow - Typical Operation              %%%%%
%%%%                        30 - April - 2015                         %%%%%
%%%%                                                                  %%%%%
%%%%%%%%%%%%%%%%%%%%%%%%%%%%%%%%%%%%%%%%%%%%%%%%%%%%%%%%%%%%%%%%%%%%%%%%%%%
%
%   Iceland network
%   Data stats: 189 nodes, 35 generators and 206 branches
%
%   Acknowledgement:
%      Paddy McNab, Durham University (Data received on 21 Jan, 2011)
%      Original file was in PSAT format. It was converted into Matpower format.
%      Please cite University of Edinburgh if you are using this data for your research.
%
%   W. A. Bukhsh, March 2013
%   send your questions and comments to : wbukhsh@gmail.com
%
function mpc = nesta_case189_edin
mpc.version = '2';
mpc.baseMVA = 100.0;

%% area data
%	area	refbus
mpc.areas = [
	1	 1;
];

%% bus data
%	bus_i	type	Pd	Qd	Gs	Bs	area	Vm	Va	baseKV	zone	Vmax	Vmin
mpc.bus = [
	1	 1	 0.0	 0.0	 0.0	 0.0	 1	    1.03530	   -6.84501	 220.0	 1	    1.10000	    0.90000;
	2	 2	 0.59	 0.26	 0.0	 0.0	 1	    1.06997	    0.49452	 13.8	 1	    1.10000	    0.90000;
	3	 2	 3.52	 1.53	 0.0	 0.0	 1	    1.06858	   -0.20615	 13.8	 1	    1.10000	    0.90000;
	4	 2	 0.0	 0.0	 0.0	 0.0	 1	    1.05353	   -6.87114	 13.8	 1	    1.10000	    0.90000;
	5	 1	 0.0	 0.0	 0.0	 0.0	 1	    1.06206	   -0.36434	 66.0	 1	    1.10000	    0.90000;
	6	 1	 0.0	 0.0	 0.0	 0.0	 1	    1.06206	   -0.36469	 66.0	 1	    1.10000	    0.90000;
	7	 1	 0.0	 0.0	 0.0	 0.0	 1	    1.05602	   -4.97660	 220.0	 1	    1.10000	    0.90000;
	8	 2	 0.0	 0.0	 0.0	 0.0	 1	    1.07447	   -3.05031	 10.5	 1	    1.10000	    0.90000;
	9	 2	 0.0	 0.0	 0.0	 0.0	 1	    1.07564	   -2.92409	 10.5	 1	    1.10000	    0.90000;
	10	 3	 0.0	 0.0	 0.0	 0.0	 1	    1.09931	    0.00000	 10.5	 1	    1.10000	    0.90000;
	11	 1	 0.0	 0.0	 0.0	 0.0	 1	    1.06214	   -4.45223	 132.0	 1	    1.10000	    0.90000;
	12	 1	 0.0	 0.0	 0.0	 0.0	 1	    1.05314	   -5.10127	 220.0	 1	    1.10000	    0.90000;
	13	 2	 0.0	 0.0	 0.0	 0.0	 1	    1.09781	    5.68529	 13.8	 1	    1.10000	    0.90000;
	14	 2	 0.0	 0.0	 0.0	 0.0	 1	    1.10000	   -3.24208	 13.8	 1	    1.10000	    0.90000;
	15	 1	 0.0	 0.0	 0.0	 0.0	 1	    1.05686	   -4.98702	 220.0	 1	    1.10000	    0.90000;
	16	 2	 0.0	 0.0	 0.0	 0.0	 1	    1.07714	   -5.04180	 11.0	 1	    1.10000	    0.90000;
	17	 1	 0.0	 0.0	 0.0	 0.0	 1	    1.03597	   -6.94379	 220.0	 1	    1.10000	    0.90000;
	18	 2	 0.0	 0.0	 0.0	 0.0	 1	    1.08559	   -7.08010	 11.0	 1	    1.10000	    0.90000;
	19	 2	 0.0	 0.0	 0.0	 0.0	 1	    1.08290	    1.06776	 11.0	 1	    1.10000	    0.90000;
	20	 1	 0.0	 0.0	 0.0	 0.0	 1	    1.03613	   -6.94471	 220.0	 1	    1.10000	    0.90000;
	21	 1	 0.0	 0.0	 0.0	 0.0	 1	    1.03195	   -7.19973	 220.0	 1	    1.10000	    0.90000;
	22	 1	 7.33	 7.1	 0.0	 0.0	 1	    1.01904	   -2.06620	 66.0	 1	    1.10000	    0.90000;
	23	 1	 2.84	 1.89	 0.0	 0.0	 1	    1.03776	   -1.37246	 66.0	 1	    1.10000	    0.90000;
	24	 1	 5.61	 4.73	 0.0	 0.0	 1	    1.01720	   -2.33434	 66.0	 1	    1.10000	    0.90000;
	25	 1	 0.0	 0.0	 0.0	 0.0	 1	    1.01371	   -9.01973	 220.0	 1	    1.10000	    0.90000;
	26	 1	 0.0	 0.0	 0.0	 0.0	 1	    1.02849	   -6.62219	 132.0	 1	    1.10000	    0.90000;
	27	 2	 0.0	 0.0	 0.0	 0.0	 1	    1.04068	   -6.67330	 10.5	 1	    1.10000	    0.90000;
	28	 2	 0.0	 0.0	 0.0	 0.0	 1	    1.04251	   -5.00026	 10.5	 1	    1.10000	    0.90000;
	29	 2	 0.0	 0.0	 0.0	 0.0	 1	    1.03576	   -5.94948	 10.5	 1	    1.10000	    0.90000;
	30	 1	 0.0	 0.0	 0.0	 0.0	 1	    1.02957	   -3.05931	 66.0	 1	    1.10000	    0.90000;
	31	 1	 0.0	 0.0	 0.0	 0.0	 1	    1.04770	   -1.95161	 66.0	 1	    1.10000	    0.90000;
	32	 2	 0.0	 0.0	 0.0	 0.0	 1	    1.05476	   -1.28383	 6.6	 1	    1.10000	    0.90000;
	33	 2	 0.0	 0.0	 0.0	 0.0	 1	    1.05920	   -1.00440	 6.6	 1	    1.10000	    0.90000;
	34	 1	 0.0	 0.0	 0.0	 0.0	 1	    1.04770	   -1.95161	 6.6	 1	    1.10000	    0.90000;
	35	 1	 0.0	 0.0	 0.0	 0.0	 1	    1.03287	   -2.60323	 66.0	 1	    1.10000	    0.90000;
	36	 2	 0.0	 0.0	 0.0	 0.0	 1	    1.03656	   -0.80443	 6.6	 1	    1.10000	    0.90000;
	37	 1	 2.83	 1.23	 0.0	 0.0	 1	    1.00796	   -4.98760	 11.0	 1	    1.10000	    0.90000;
	38	 1	 5.85	 3.53	 0.0	 0.0	 1	    1.03287	   -2.60358	 66.0	 1	    1.10000	    0.90000;
	39	 1	 0.0	 0.0	 0.0	 0.0	 1	    0.99976	  -10.38028	 220.0	 1	    1.10000	    0.90000;
	40	 1	 0.0	 0.0	 0.0	 0.0	 1	    1.00619	   -8.53936	 132.0	 1	    1.10000	    0.90000;
	41	 1	 0.0	 0.0	 0.0	 0.0	 1	    0.99999	  -10.38412	 220.0	 1	    1.10000	    0.90000;
	42	 2	 0.0	 0.0	 0.0	 0.0	 1	    1.02755	   -7.44839	 11.0	 1	    1.10000	    0.90000;
	43	 2	 0.0	 0.0	 0.0	 0.0	 1	    1.02839	   -9.13593	 11.0	 1	    1.10000	    0.90000;
	44	 1	 8.26	 5.12	 0.0	 0.0	 1	    1.01417	   -2.88232	 66.0	 1	    1.10000	    0.90000;
	45	 1	 4.01	 2.73	 0.0	 0.0	 1	    1.00948	   -3.03032	 33.0	 1	    1.10000	    0.90000;
	46	 1	 0.0	 0.0	 0.0	 0.0	 1	    1.01536	   -8.88274	 220.0	 1	    1.10000	    0.90000;
	47	 1	 0.0	 0.0	 0.0	 0.0	 1	    1.00619	   -8.53936	 132.0	 1	    1.10000	    0.90000;
	48	 1	 0.0	 0.0	 0.0	 0.0	 1	    0.99976	  -10.38033	 220.0	 1	    1.10000	    0.90000;
	49	 1	 7.55	 2.5	 0.0	 0.0	 1	    1.03672	   -8.04135	 132.0	 1	    1.10000	    0.90000;
	50	 2	 0.0	 0.0	 0.0	 0.0	 1	    1.05340	   -5.59797	 11.0	 1	    1.10000	    0.90000;
	51	 2	 0.0	 0.0	 0.0	 0.0	 1	    1.05129	   -8.09624	 11.0	 1	    1.10000	    0.90000;
	52	 2	 0.0	 0.0	 0.0	 0.0	 1	    1.05368	   -3.59113	 11.0	 1	    1.10000	    0.90000;
	53	 2	 0.0	 0.0	 0.0	 0.0	 1	    1.05129	   -8.09624	 11.0	 1	    1.10000	    0.90000;
	54	 1	 6.23	 2.05	 0.0	 0.0	 1	    1.02850	   -2.89676	 66.0	 1	    1.10000	    0.90000;
	55	 1	 0.0	 0.0	 0.0	 0.0	 1	    1.03603	   -8.08134	 132.0	 1	    1.10000	    0.90000;
	56	 1	 0.0	 0.0	 0.0	 0.0	 1	    1.02440	   -8.93098	 132.0	 1	    1.10000	    0.90000;
	57	 1	 0.0	 0.0	 0.0	 0.0	 1	    0.99472	  -10.96888	 220.0	 1	    1.10000	    0.90000;
	58	 1	 0.0	 0.0	 0.0	 0.3	 1	    1.01870	   -9.07256	 132.0	 1	    1.10000	    0.90000;
	59	 1	 0.0	 0.0	 0.0	 0.0	 1	    1.01589	   -9.19357	 132.0	 1	    1.10000	    0.90000;
	60	 1	 200.86	 68.47	 0.0	 0.0	 1	    0.93336	  -18.36542	 21.0	 1	    1.10000	    0.90000;
	61	 1	 0.0	 0.0	 0.0	 0.0	 1	    0.98155	  -11.96840	 220.0	 1	    1.10000	    0.90000;
	62	 1	 0.0	 0.0	 0.0	 0.0	 1	    0.98299	  -11.83588	 220.0	 1	    1.10000	    0.90000;
	63	 1	 110.14	 36.81	 0.0	 0.0	 1	    0.92164	  -20.16422	 33.0	 1	    1.10000	    0.90000;
	64	 1	 0.0	 0.0	 0.0	 0.0	 1	    0.98433	  -11.75182	 220.0	 1	    1.10000	    0.90000;
	65	 1	 50.0	 12.0	 0.0	 0.0	 1	    0.96616	  -15.35051	 33.0	 1	    1.10000	    0.90000;
	66	 1	 0.0	 0.0	 0.0	 0.0	 1	    0.98311	  -11.87782	 220.0	 1	    1.10000	    0.90000;
	67	 1	 80.0	 20.0	 0.0	 0.0	 1	    0.95056	  -17.74255	 33.0	 1	    1.10000	    0.90000;
	68	 1	 56.0	 14.0	 0.0	 0.0	 1	    0.96169	  -15.93189	 33.0	 1	    1.10000	    0.90000;
	69	 1	 0.0	 0.0	 0.0	 0.0	 1	    1.02020	   -9.13232	 132.0	 1	    1.10000	    0.90000;
	70	 1	 34.04	 20.9	 0.0	 0.0	 1	    1.00664	  -10.24036	 33.0	 1	    1.10000	    0.90000;
	71	 1	 0.0	 0.0	 0.0	 0.08	 1	    0.98494	  -11.67797	 220.0	 1	    1.10000	    0.90000;
	72	 1	 0.0	 0.0	 0.0	 0.43	 1	    0.98651	   -7.88814	 132.0	 1	    1.10000	    0.90000;
	73	 1	 0.0	 0.0	 0.0	 0.0	 1	    0.98586	   -7.92899	 132.0	 1	    1.10000	    0.90000;
	74	 1	 17.33	 9.28	 0.0	 0.0	 1	    0.97442	   -8.90732	 11.0	 1	    1.10000	    0.90000;
	75	 1	 0.0	 0.0	 0.0	 0.0	 1	    0.99575	  -10.75155	 220.0	 1	    1.10000	    0.90000;
	76	 1	 0.0	 0.0	 0.0	 0.75	 1	    0.97125	  -14.48724	 220.0	 1	    1.10000	    0.90000;
	77	 1	 0.55	 0.24	 0.0	 0.0	 1	    0.96170	  -12.77386	 132.0	 1	    1.10000	    0.90000;
	78	 1	 7.76	 3.38	 0.0	 0.0	 1	    0.95853	  -13.15465	 66.0	 1	    1.10000	    0.90000;
	79	 1	 0.0	 0.0	 0.0	 0.0	 1	    0.95853	  -13.15465	 11.0	 1	    1.10000	    0.90000;
	80	 1	 125.01	 31.3	 0.0	 0.0	 1	    0.96906	  -14.77842	 220.0	 1	    1.10000	    0.90000;
	81	 1	 379.0	 92.49	 0.0	 0.0	 1	    0.96868	  -14.90716	 220.0	 1	    1.10000	    0.90000;
	82	 1	 0.0	 0.0	 0.0	 0.0	 1	    1.01524	   -9.23155	 132.0	 1	    1.10000	    0.90000;
	83	 1	 25.98	 18.84	 0.0	 0.0	 1	    1.01428	   -9.26060	 11.0	 1	    1.10000	    0.90000;
	84	 1	 0.0	 0.0	 0.0	 0.0	 1	    1.01939	   -9.17208	 132.0	 1	    1.10000	    0.90000;
	85	 1	 15.83	 10.92	 0.0	 0.0	 1	    1.01241	   -9.68121	 11.0	 1	    1.10000	    0.90000;
	86	 1	 0.0	 0.0	 0.0	 0.0	 1	    1.01481	   -9.24381	 132.0	 1	    1.10000	    0.90000;
	87	 1	 8.34	 8.96	 0.0	 0.0	 1	    1.00923	   -9.50875	 11.0	 1	    1.10000	    0.90000;
	88	 1	 0.0	 0.0	 0.0	 0.0	 1	    0.98428	   -8.19364	 132.0	 1	    1.10000	    0.90000;
	89	 1	 15.47	 8.04	 0.0	 0.0	 1	    0.97772	   -8.83959	 11.0	 1	    1.10000	    0.90000;
	90	 1	 0.0	 0.0	 0.0	 0.0	 1	    0.98512	   -8.13921	 132.0	 1	    1.10000	    0.90000;
	91	 1	 8.26	 4.25	 0.0	 0.0	 1	    0.98168	   -8.48247	 11.0	 1	    1.10000	    0.90000;
	92	 1	 0.0	 0.0	 0.0	 0.0	 1	    0.98515	   -8.13342	 132.0	 1	    1.10000	    0.90000;
	93	 1	 15.11	 10.0	 0.0	 0.0	 1	    1.04878	    0.24477	 132.0	 1	    1.10000	    0.90000;
	94	 1	 0.0	 0.0	 0.0	 0.0	 1	    1.06878	    2.81202	 132.0	 1	    1.10000	    0.90000;
	95	 1	 0.0	 0.0	 0.0	 0.0	 1	    1.06878	    2.81202	 11.0	 1	    1.10000	    0.90000;
	96	 1	 0.0	 0.0	 0.0	 0.0	 1	    1.06418	    2.02157	 132.0	 1	    1.10000	    0.90000;
	97	 1	 0.0	 0.0	 0.0	 0.0	 1	    1.08032	    2.47569	 132.0	 1	    1.10000	    0.90000;
	98	 2	 0.0	 0.0	 0.0	 0.0	 1	    1.10000	    3.95255	 11.0	 1	    1.10000	    0.90000;
	99	 2	 0.0	 0.0	 0.0	 0.0	 1	    1.10000	    2.44441	 11.0	 1	    1.10000	    0.90000;
	100	 1	 0.0	 0.0	 0.0	 0.0	 1	    1.08032	    2.47569	 11.0	 1	    1.10000	    0.90000;
	101	 1	 0.0	 0.0	 0.0	 0.0	 1	    1.08032	    2.47569	 11.0	 1	    1.10000	    0.90000;
	102	 2	 3.78	 1.25	 0.0	 0.0	 1	    1.09741	   10.87892	 11.0	 1	    1.10000	    0.90000;
	103	 1	 0.0	 0.0	 0.0	 0.0	 1	    0.96183	  -11.10564	 132.0	 1	    1.10000	    0.90000;
	104	 2	 22.13	 4.05	 0.0	 0.0	 1	    0.95654	  -13.06751	 66.0	 1	    1.10000	    0.90000;
	105	 1	 5.35	 2.33	 0.0	 0.0	 1	    0.95474	  -13.26013	 19.0	 1	    1.10000	    0.90000;
	106	 1	 0.0	 0.0	 0.0	 0.0	 1	    0.95474	  -13.26013	 0.41	 1	    1.10000	    0.90000;
	107	 1	 0.0	 0.0	 0.0	 0.0	 1	    0.95654	  -13.06751	 11.0	 1	    1.10000	    0.90000;
	108	 1	 0.0	 0.0	 0.0	 0.0	 1	    0.95474	  -13.26013	 11.0	 1	    1.10000	    0.90000;
	109	 1	 0.0	 0.0	 0.0	 0.0	 1	    0.99212	   -3.00717	 132.0	 1	    1.10000	    0.90000;
	110	 1	 1.8	 0.2	 0.0	 0.0	 1	    0.99180	   -3.10984	 19.0	 1	    1.10000	    0.90000;
	111	 1	 0.0	 0.0	 0.0	 0.0	 1	    0.99180	   -3.10984	 0.41	 1	    1.10000	    0.90000;
	112	 1	 0.0	 0.0	 0.0	 0.0	 1	    0.99180	   -3.10984	 11.0	 1	    1.10000	    0.90000;
	113	 1	 0.0	 0.0	 0.0	 0.0	 1	    0.99125	   -4.43922	 132.0	 1	    1.10000	    0.90000;
	114	 1	 3.0	 -1.0	 0.0	 0.0	 1	    0.99203	   -4.60228	 33.0	 1	    1.10000	    0.90000;
	115	 1	 0.0	 0.0	 0.0	 0.0	 1	    0.98438	   -6.49900	 132.0	 1	    1.10000	    0.90000;
	116	 1	 20.0	 2.11	 0.0	 0.0	 1	    0.98248	   -7.79624	 66.0	 1	    1.10000	    0.90000;
	117	 2	 4.0	 1.05	 0.0	 0.0	 1	    0.98579	   -7.55330	 6.3	 1	    1.10000	    0.90000;
	118	 1	 0.0	 0.0	 0.0	 0.0	 1	    0.98454	   -7.64326	 33.0	 1	    1.10000	    0.90000;
	119	 1	 0.0	 0.0	 0.0	 0.0	 1	    0.99208	   -1.87621	 132.0	 1	    1.10000	    0.90000;
	120	 1	 2.57	 1.12	 0.0	 0.0	 1	    0.99082	   -2.02048	 19.0	 1	    1.10000	    0.90000;
	121	 1	 0.0	 0.0	 0.0	 0.0	 1	    0.99082	   -2.02048	 0.41	 1	    1.10000	    0.90000;
	122	 1	 0.0	 0.0	 0.0	 0.0	 1	    0.99082	   -2.02048	 11.0	 1	    1.10000	    0.90000;
	123	 1	 0.0	 0.0	 0.0	 0.0	 1	    1.04602	    8.79496	 132.0	 1	    1.10000	    0.90000;
	124	 1	 5.0	 0.92	 0.0	 0.0	 1	    1.04461	    8.45898	 33.0	 1	    1.10000	    0.90000;
	125	 1	 0.0	 0.0	 0.0	 0.0	 1	    1.08218	   13.50559	 132.0	 1	    1.10000	    0.90000;
	126	 2	 0.0	 0.0	 0.0	 0.0	 1	    1.10000	   15.50344	 11.0	 1	    1.10000	    0.90000;
	127	 2	 0.0	 0.0	 0.0	 0.0	 1	    1.10000	   18.59254	 11.0	 1	    1.10000	    0.90000;
	128	 1	 0.0	 0.0	 0.0	 0.0	 1	    1.10000	   15.50344	 11.0	 1	    1.10000	    0.90000;
	129	 1	 0.0	 0.0	 0.0	 0.0	 1	    1.10000	   18.59254	 11.0	 1	    1.10000	    0.90000;
	130	 1	 0.0	 0.0	 0.0	 0.0	 1	    1.07722	   12.86365	 132.0	 1	    1.10000	    0.90000;
	131	 1	 9.0	 1.47	 0.0	 0.0	 1	    1.07478	   12.22944	 66.0	 1	    1.10000	    0.90000;
	132	 1	 0.0	 0.0	 0.0	 0.0	 1	    1.06074	   12.08208	 132.0	 1	    1.10000	    0.90000;
	133	 1	 13.0	 1.0	 0.0	 0.0	 1	    1.05721	   11.80820	 66.0	 1	    1.10000	    0.90000;
	134	 1	 4.08	 1.78	 0.0	 0.0	 1	    1.05555	   11.64795	 11.0	 1	    1.10000	    0.90000;
	135	 1	 0.0	 0.0	 0.0	 0.0	 1	    1.05555	   11.64795	 0.41	 1	    1.10000	    0.90000;
	136	 1	 0.0	 0.0	 0.0	 0.0	 1	    1.05555	   11.64795	 11.0	 1	    1.10000	    0.90000;
	137	 1	 0.0	 0.0	 0.0	 0.0	 1	    1.04754	   11.78563	 132.0	 1	    1.10000	    0.90000;
	138	 2	 0.0	 0.0	 0.0	 0.0	 1	    1.02937	   14.63443	 11.0	 1	    1.10000	    0.90000;
	139	 2	 2.27	 0.99	 0.0	 0.0	 1	    1.02778	   13.67478	 11.0	 1	    1.10000	    0.90000;
	140	 1	 0.0	 0.0	 0.0	 0.0	 1	    1.02853	   14.15498	 0.41	 1	    1.10000	    0.90000;
	141	 1	 0.0	 0.0	 0.0	 0.0	 1	    1.02823	   13.90872	 11.0	 1	    1.10000	    0.90000;
	142	 2	 0.0	 0.0	 0.0	 0.0	 1	    1.02823	   13.90912	 11.0	 1	    1.10000	    0.90000;
	143	 1	 8.08	 0.5	 0.0	 0.0	 1	    1.09834	   15.29499	 66.0	 1	    1.10000	    0.90000;
	144	 2	 0.0	 0.0	 0.0	 0.0	 1	    1.10000	   16.14819	 11.0	 1	    1.10000	    0.90000;
	145	 1	 0.0	 0.0	 0.0	 0.0	 1	    1.09834	   15.29499	 33.0	 1	    1.10000	    0.90000;
	146	 1	 0.0	 0.0	 0.0	 0.0	 1	    1.09904	   15.67332	 6.6	 1	    1.10000	    0.90000;
	147	 1	 0.0	 0.0	 0.0	 0.0	 1	    1.09835	   15.30009	 11.0	 1	    1.10000	    0.90000;
	148	 1	 0.0	 0.0	 0.0	 0.0	 1	    1.09955	   15.92972	 0.38	 1	    1.10000	    0.90000;
	149	 1	 0.0	 0.0	 0.0	 0.0	 1	    1.09835	   15.30256	 0.22	 1	    1.10000	    0.90000;
	150	 1	 0.0	 0.0	 0.0	 0.0	 1	    1.09912	   15.70987	 0.38	 1	    1.10000	    0.90000;
	151	 1	 0.0	 0.0	 0.0	 0.0	 1	    1.09912	   15.70987	 0.22	 1	    1.10000	    0.90000;
	152	 1	 0.0	 0.0	 0.0	 0.0	 1	    1.09912	   15.71108	 6.6	 1	    1.10000	    0.90000;
	153	 1	 0.0	 0.0	 0.0	 0.0	 1	    1.09912	   15.70987	 6.6	 1	    1.10000	    0.90000;
	154	 1	 0.0	 0.0	 0.0	 0.0	 1	    1.09912	   15.71108	 0.22	 1	    1.10000	    0.90000;
	155	 1	 0.01	 0.01	 0.0	 0.0	 1	    1.08401	   -0.29089	 132.0	 1	    1.10000	    0.90000;
	156	 1	 17.38	 4.4	 0.0	 0.0	 1	    1.07588	   -1.46156	 66.0	 1	    1.10000	    0.90000;
	157	 1	 0.0	 0.0	 0.0	 0.0	 1	    1.08191	   -0.43860	 132.0	 1	    1.10000	    0.90000;
	158	 1	 0.0	 0.0	 0.0	 0.0	 1	    1.07963	   -0.73940	 132.0	 1	    1.10000	    0.90000;
	159	 1	 10.14	 2.7	 0.0	 0.0	 1	    1.07475	   -1.51914	 66.0	 1	    1.10000	    0.90000;
	160	 1	 0.0	 0.0	 0.0	 0.0	 1	    1.07475	   -1.51914	 11.0	 1	    1.10000	    0.90000;
	161	 1	 0.0	 0.0	 0.0	 0.0	 1	    1.09163	   -1.69257	 132.0	 1	    1.10000	    0.90000;
	162	 1	 2.87	 0.4	 0.0	 0.0	 1	    1.09069	   -1.92204	 11.0	 1	    1.10000	    0.90000;
	163	 1	 0.0	 0.0	 0.0	 0.0	 1	    1.09107	   -1.84028	 33.0	 1	    1.10000	    0.90000;
	164	 1	 0.0	 0.0	 0.0	 0.0	 1	    1.09069	   -1.92204	 0.41	 1	    1.10000	    0.90000;
	165	 1	 0.0	 0.0	 0.0	 0.0	 1	    1.09107	   -1.84028	 11.0	 1	    1.10000	    0.90000;
	166	 1	 0.0	 0.0	 0.0	 0.0	 1	    1.10000	   -3.47808	 132.0	 1	    1.10000	    0.90000;
	167	 1	 7.26	 0.4	 0.0	 0.0	 1	    1.09929	   -3.84770	 11.0	 1	    1.10000	    0.90000;
	168	 1	 0.0	 0.0	 0.0	 0.0	 1	    1.09929	   -3.84770	 0.41	 1	    1.10000	    0.90000;
	169	 1	 0.0	 0.0	 0.0	 0.0	 1	    1.09929	   -3.84770	 11.0	 1	    1.10000	    0.90000;
	170	 1	 0.0	 0.0	 0.0	 0.0	 1	    1.07209	   -1.23673	 132.0	 1	    1.10000	    0.90000;
	171	 1	 0.0	 0.0	 0.0	 0.0	 1	    1.09929	   -3.84770	 19.0	 1	    1.10000	    0.90000;
	172	 1	 0.0	 0.0	 0.0	 0.0	 1	    1.07255	   -3.63158	 132.0	 1	    1.10000	    0.90000;
	173	 1	 1.73	 0.2	 0.0	 0.0	 1	    1.07232	   -3.69907	 19.0	 1	    1.10000	    0.90000;
	174	 1	 0.0	 0.0	 0.0	 0.0	 1	    1.07232	   -3.69907	 0.41	 1	    1.10000	    0.90000;
	175	 1	 0.0	 0.0	 0.0	 0.0	 1	    1.07232	   -3.69907	 11.0	 1	    1.10000	    0.90000;
	176	 1	 0.0	 0.0	 0.0	 0.0	 1	    1.08051	    1.14855	 132.0	 1	    1.10000	    0.90000;
	177	 1	 0.0	 0.0	 0.0	 0.0	 1	    1.08397	    0.53096	 220.0	 1	    1.10000	    0.90000;
	178	 1	 5.2	 3.0	 0.0	 0.0	 1	    1.07976	    0.05621	 11.0	 1	    1.10000	    0.90000;
	179	 1	 0.0	 0.0	 0.0	 0.0	 1	    1.08335	    0.35455	 69.0	 1	    1.10000	    0.90000;
	180	 1	 0.0	 0.0	 0.0	 0.0	 1	    1.08335	    0.35455	 69.0	 1	    1.10000	    0.90000;
	181	 1	 0.0	 0.0	 0.0	 0.0	 1	    1.08335	    0.35455	 69.0	 1	    1.10000	    0.90000;
	182	 1	 0.0	 0.0	 0.0	 0.0	 1	    1.08335	    0.35455	 69.0	 1	    1.10000	    0.90000;
	183	 1	 0.0	 0.0	 0.0	 0.0	 1	    1.08335	    0.35455	 69.0	 1	    1.10000	    0.90000;
	184	 1	 5.21	 3.0	 0.0	 0.0	 1	    1.07975	    0.05541	 11.0	 1	    1.10000	    0.90000;
	185	 1	 9.67	 1.6	 0.0	 0.0	 1	    1.05707	   -2.23918	 66.0	 1	    1.10000	    0.90000;
	186	 2	 0.0	 0.0	 0.0	 0.0	 1	    1.05723	   -2.05921	 6.6	 1	    1.10000	    0.90000;
	187	 1	 0.0	 0.0	 0.0	 0.0	 1	    1.05707	   -2.23918	 11.0	 1	    1.10000	    0.90000;
	188	 1	 0.0	 0.0	 0.0	 0.0	 1	    1.08335	    0.35455	 220.0	 1	    1.10000	    0.90000;
	189	 1	 0.0	 0.0	 0.0	 0.0	 1	    1.08334	    0.35426	 220.0	 1	    1.10000	    0.90000;
];

%% generator data
%	bus	Pg	Qg	Qmax	Qmin	Vg	mBase	status	Pmax	Pmin	Pc1	Pc2	Qc1min	Qc1max	Qc2min	Qc2max	ramp_agc	ramp_10	ramp_30	ramp_q	apf
mpc.gen = [
	10	 79.166	 38.0	 38.0	 -20.0	 1.09931	 69.3	 1	 228	 0.0	 0.0	 0.0	 0.0	 0.0	 0.0	 0.0	 0.0	 0.0	 0.0	 0.0	 0.0; % COW
	2	 115.0	 34.0	 34.0	 -20.0	 1.06997	 106.6	 1	 115	 0.0	 0.0	 0.0	 0.0	 0.0	 0.0	 0.0	 0.0	 0.0	 0.0	 0.0	 0.0; % COW
	3	 95.0	 34.0	 34.0	 -20.0	 1.06858	 106.6	 1	 95	 0.0	 0.0	 0.0	 0.0	 0.0	 0.0	 0.0	 0.0	 0.0	 0.0	 0.0	 0.0; % NUC
	4	 0.0	 17.0	 17.0	 -10.0	 1.05353	 53.3	 1	 128	 0.0	 0.0	 0.0	 0.0	 0.0	 0.0	 0.0	 0.0	 0.0	 0.0	 0.0	 0.0; % COW
	8	 30.0	 15.0	 15.0	 -15.0	 1.07447	 69.3	 1	 30	 0.0	 0.0	 0.0	 0.0	 0.0	 0.0	 0.0	 0.0	 0.0	 0.0	 0.0	 0.0; % NUC
	9	 32.0	 16.0	 16.0	 -16.0	 1.07564	 69.3	 1	 32	 0.0	 0.0	 0.0	 0.0	 0.0	 0.0	 0.0	 0.0	 0.0	 0.0	 0.0	 0.0; % COW
	13	 145.492	 42.0	 42.0	 -20.0	 1.09781	 81.5	 1	 236	 0.0	 0.0	 0.0	 0.0	 0.0	 0.0	 0.0	 0.0	 0.0	 0.0	 0.0	 0.0; % COW
	14	 26.062	 33.998	 42.0	 -20.0	 1.1	 81.5	 1	 164	 0.0	 0.0	 0.0	 0.0	 0.0	 0.0	 0.0	 0.0	 0.0	 0.0	 0.0	 0.0; % COW
	16	 0.0	 17.0	 17.0	 -10.0	 1.07714	 53.3	 1	 164	 0.0	 0.0	 0.0	 0.0	 0.0	 0.0	 0.0	 0.0	 0.0	 0.0	 0.0	 0.0; % COW
	18	 0.0	 42.0	 42.0	 -20.0	 1.08559	 66.67	 1	 151	 0.0	 0.0	 0.0	 0.0	 0.0	 0.0	 0.0	 0.0	 0.0	 0.0	 0.0	 0.0; % NG
	19	 124.0	 42.0	 42.0	 -20.0	 1.0829	 66.67	 1	 124	 0.0	 0.0	 0.0	 0.0	 0.0	 0.0	 0.0	 0.0	 0.0	 0.0	 0.0	 0.0; % COW
	27	 0.0	 11.6	 11.6	 -5.0	 1.04068	 19.4	 1	 46	 0.0	 0.0	 0.0	 0.0	 0.0	 0.0	 0.0	 0.0	 0.0	 0.0	 0.0	 0.0; % COW
	28	 28.495	 11.6	 11.6	 -5.0	 1.04251	 19.4	 1	 63	 0.0	 0.0	 0.0	 0.0	 0.0	 0.0	 0.0	 0.0	 0.0	 0.0	 0.0	 0.0; % COW
	29	 13.0	 7.0	 7.0	 -5.0	 1.03576	 21.0	 1	 13	 0.0	 0.0	 0.0	 0.0	 0.0	 0.0	 0.0	 0.0	 0.0	 0.0	 0.0	 0.0; % NUC
	32	 11.0	 6.0	 6.0	 -5.0	 1.05476	 16.5	 1	 11	 0.0	 0.0	 0.0	 0.0	 0.0	 0.0	 0.0	 0.0	 0.0	 0.0	 0.0	 0.0; % COW
	33	 15.708	 9.9	 9.9	 -5.0	 1.0592	 16.5	 1	 20	 0.0	 0.0	 0.0	 0.0	 0.0	 0.0	 0.0	 0.0	 0.0	 0.0	 0.0	 0.0; % COW
	36	 52.0	 3.3	 3.3	 -2.0	 1.03656	 18.2	 1	 52	 0.0	 0.0	 0.0	 0.0	 0.0	 0.0	 0.0	 0.0	 0.0	 0.0	 0.0	 0.0; % COW
	42	 42.0	 21.0	 21.0	 -20.0	 1.02755	 55.0	 1	 42	 0.0	 0.0	 0.0	 0.0	 0.0	 0.0	 0.0	 0.0	 0.0	 0.0	 0.0	 0.0; % NUC
	43	 18.528	 22.0	 22.0	 -20.0	 1.02839	 55.0	 1	 166	 0.0	 0.0	 0.0	 0.0	 0.0	 0.0	 0.0	 0.0	 0.0	 0.0	 0.0	 0.0; % COW
	50	 62.135	 20.0	 20.0	 -20.0	 1.0534	 40.0	 1	 72	 0.0	 0.0	 0.0	 0.0	 0.0	 0.0	 0.0	 0.0	 0.0	 0.0	 0.0	 0.0; % COW
	51	 0.0	 20.0	 20.0	 -20.0	 1.05129	 40.0	 1	 88	 0.0	 0.0	 0.0	 0.0	 0.0	 0.0	 0.0	 0.0	 0.0	 0.0	 0.0	 0.0; % COW
	52	 112.0	 20.0	 20.0	 -20.0	 1.05368	 40.0	 1	 112	 0.0	 0.0	 0.0	 0.0	 0.0	 0.0	 0.0	 0.0	 0.0	 0.0	 0.0	 0.0; % COW
	53	 0.0	 20.0	 20.0	 -20.0	 1.05129	 40.0	 1	 111	 0.0	 0.0	 0.0	 0.0	 0.0	 0.0	 0.0	 0.0	 0.0	 0.0	 0.0	 0.0; % COW
	98	 33.206	 22.415	 23.0	 -16.0	 1.1	 55.0	 1	 121	 0.0	 0.0	 0.0	 0.0	 0.0	 0.0	 0.0	 0.0	 0.0	 0.0	 0.0	 0.0; % COW
	99	 0.0	 22.99	 23.0	 -16.0	 1.1	 55.0	 1	 65	 0.0	 0.0	 0.0	 0.0	 0.0	 0.0	 0.0	 0.0	 0.0	 0.0	 0.0	 0.0; % COW
	102	 142.412	 30.0	 30.0	 -26.0	 1.09741	 67.5	 1	 218	 0.0	 0.0	 0.0	 0.0	 0.0	 0.0	 0.0	 0.0	 0.0	 0.0	 0.0	 0.0; % COW
	104	 0.0	 3.3	 3.3	 -3.3	 0.95654	 10.0	 1	 11	 0.0	 0.0	 0.0	 0.0	 0.0	 0.0	 0.0	 0.0	 0.0	 0.0	 0.0	 0.0; % COW
	117	 6.0	 2.5	 2.5	 0.0	 0.98579	 20.2	 1	 6	 0.0	 0.0	 0.0	 0.0	 0.0	 0.0	 0.0	 0.0	 0.0	 0.0	 0.0	 0.0; % NUC
	126	 40.0	 18.205	 20.0	 -12.0	 1.1	 60.0	 1	 40	 0.0	 0.0	 0.0	 0.0	 0.0	 0.0	 0.0	 0.0	 0.0	 0.0	 0.0	 0.0; % NUC
	127	 101.0	 20.254	 22.0	 -12.0	 1.1	 60.0	 1	 101	 0.0	 0.0	 0.0	 0.0	 0.0	 0.0	 0.0	 0.0	 0.0	 0.0	 0.0	 0.0; % COW
	138	 58.0	 -13.524	 18.7	 -16.0	 1.02937	 37.5	 1	 58	 0.0	 0.0	 0.0	 0.0	 0.0	 0.0	 0.0	 0.0	 0.0	 0.0	 0.0	 0.0; % COW
	139	 0.0	 -13.513	 18.7	 -16.0	 1.02778	 37.5	 1	 95	 0.0	 0.0	 0.0	 0.0	 0.0	 0.0	 0.0	 0.0	 0.0	 0.0	 0.0	 0.0; % COW
	142	 7.0	 0.064	 1.3	 0.0	 1.02823	 3.5	 1	 7	 0.0	 0.0	 0.0	 0.0	 0.0	 0.0	 0.0	 0.0	 0.0	 0.0	 0.0	 0.0; % COW
	144	 21.0	 0.837	 11.0	 0.0	 1.1	 28.0	 1	 21	 0.0	 0.0	 0.0	 0.0	 0.0	 0.0	 0.0	 0.0	 0.0	 0.0	 0.0	 0.0; % NUC
	186	 6.0	 0.0	 3.0	 0.0	 1.05723	 10.0	 1	 6	 0.0	 0.0	 0.0	 0.0	 0.0	 0.0	 0.0	 0.0	 0.0	 0.0	 0.0	 0.0; % NUC
];

%% generator cost data
%	2	startup	shutdown	n	c(n-1)	...	c0
mpc.gencost = [
	2	 0.0	 0.0	 3	   0.000000	   0.950261	   0.000000; % COW
	2	 0.0	 0.0	 3	   0.000000	   0.410910	   0.000000; % COW
	2	 0.0	 0.0	 3	   0.000000	   0.193324	   0.000000; % NUC
	2	 0.0	 0.0	 3	   0.000000	   1.082710	   0.000000; % COW
	2	 0.0	 0.0	 3	   0.000000	   0.187727	   0.000000; % NUC
	2	 0.0	 0.0	 3	   0.000000	   0.685695	   0.000000; % COW
	2	 0.0	 0.0	 3	   0.000000	   0.908043	   0.000000; % COW
	2	 0.0	 0.0	 3	   0.000000	   0.975515	   0.000000; % COW
	2	 0.0	 0.0	 3	   0.000000	   1.031722	   0.000000; % COW
	2	 0.0	 0.0	 3	   0.000000	   1.078768	   0.000000; % NG
	2	 0.0	 0.0	 3	   0.000000	   0.363147	   0.000000; % COW
	2	 0.0	 0.0	 3	   0.000000	   1.033987	   0.000000; % COW
	2	 0.0	 0.0	 3	   0.000000	   0.994267	   0.000000; % COW
	2	 0.0	 0.0	 3	   0.000000	   0.200299	   0.000000; % NUC
	2	 0.0	 0.0	 3	   0.000000	   0.625656	   0.000000; % COW
	2	 0.0	 0.0	 3	   0.000000	   0.947925	   0.000000; % COW
	2	 0.0	 0.0	 3	   0.000000	   0.523605	   0.000000; % COW
	2	 0.0	 0.0	 3	   0.000000	   0.194502	   0.000000; % NUC
	2	 0.0	 0.0	 3	   0.000000	   1.050080	   0.000000; % COW
	2	 0.0	 0.0	 3	   0.000000	   0.959580	   0.000000; % COW
	2	 0.0	 0.0	 3	   0.000000	   1.036212	   0.000000; % COW
	2	 0.0	 0.0	 3	   0.000000	   0.812749	   0.000000; % COW
	2	 0.0	 0.0	 3	   0.000000	   1.160191	   0.000000; % COW
	2	 0.0	 0.0	 3	   0.000000	   0.607646	   0.000000; % COW
	2	 0.0	 0.0	 3	   0.000000	   1.043813	   0.000000; % COW
	2	 0.0	 0.0	 3	   0.000000	   0.583193	   0.000000; % COW
	2	 0.0	 0.0	 3	   0.000000	   1.204295	   0.000000; % COW
	2	 0.0	 0.0	 3	   0.000000	   0.207683	   0.000000; % NUC
	2	 0.0	 0.0	 3	   0.000000	   0.255753	   0.000000; % NUC
	2	 0.0	 0.0	 3	   0.000000	   0.655194	   0.000000; % COW
	2	 0.0	 0.0	 3	   0.000000	   0.529207	   0.000000; % COW
	2	 0.0	 0.0	 3	   0.000000	   0.810865	   0.000000; % COW
	2	 0.0	 0.0	 3	   0.000000	   0.474352	   0.000000; % COW
	2	 0.0	 0.0	 3	   0.000000	   0.197888	   0.000000; % NUC
	2	 0.0	 0.0	 3	   0.000000	   0.173390	   0.000000; % NUC
];

%% branch data
%	fbus	tbus	r	x	b	rateA	rateB	rateC	ratio	angle	status	angmin	angmax
mpc.branch = [
	1	 7	 0.0055	 0.0334	 0.04711	 321	 321	 321	 1.0	 0.0	 1	 -30.0	 30.0;
	1	 17	 0.00059	 0.00818	 0.02064	 476	 476	 476	 1.0	 0.0	 1	 -30.0	 30.0;
	1	 21	 0.00138	 0.00908	 0.0128	 334	 334	 334	 1.0	 0.0	 1	 -30.0	 30.0;
	1	 46	 0.0075	 0.04531	 0.06412	 321	 321	 321	 1.0	 0.0	 1	 -30.0	 30.0;
	1	 71	 0.00607	 0.08107	 0.20636	 389	 389	 389	 1.0	 0.0	 1	 -30.0	 30.0;
	5	 6	 0.0	 0.0001	 0.0	 9900.0	 9900.0	 9900.0	 1.0	 0.0	 1	 -30.0	 30.0;
	5	 23	 0.1134	 0.2371	 0.0034	 58	 58	 58	 1.0	 0.0	 1	 -30.0	 30.0;
	6	 22	 0.1892	 0.4045	 0.0057	 59	 59	 59	 1.0	 0.0	 1	 -30.0	 30.0;
	7	 12	 0.0008	 0.00758	 0.0122	 397	 397	 397	 1.0	 0.0	 1	 -30.0	 30.0;
	7	 15	 0.00118	 0.00525	 0.00734	 277	 277	 277	 1.0	 0.0	 1	 -30.0	 30.0;
	11	 172	 0.0414	 0.186	 0.03803	 166	 166	 166	 1.0	 0.0	 1	 -30.0	 30.0;
	12	 17	 0.00186	 0.01775	 0.02631	 399	 399	 399	 1.0	 0.0	 1	 -30.0	 30.0;
	17	 20	 0.0015	 0.01421	 0.02098	 397	 397	 397	 1.0	 0.0	 1	 -30.0	 30.0;
	17	 76	 0.01123	 0.10655	 0.15787	 295	 295	 295	 1.0	 0.0	 1	 -30.0	 30.0;
	17	 76	 0.00673	 0.0629	 0.22871	 395	 395	 395	 1.0	 0.0	 1	 -30.0	 30.0;
	21	 25	 0.00702	 0.04602	 0.06492	 333	 333	 333	 1.0	 0.0	 1	 -30.0	 30.0;
	22	 24	 0.09229	 0.11961	 0.00156	 47	 47	 47	 1.0	 0.0	 1	 -30.0	 30.0;
	23	 24	 0.12833	 0.28719	 0.00422	 60	 60	 60	 1.0	 0.0	 1	 -30.0	 30.0;
	24	 44	 0.1	 0.15	 0.002	 50	 50	 50	 1.0	 0.0	 1	 -30.0	 30.0;
	25	 57	 0.005	 0.0328	 0.0456	 333	 333	 333	 1.0	 0.0	 1	 -30.0	 30.0;
	26	 40	 0.02416	 0.06049	 0.01107	 127	 127	 127	 1.0	 0.0	 1	 -30.0	 30.0;
	30	 35	 0.006	 0.015	 0.0	 64	 64	 64	 1.0	 0.0	 1	 -30.0	 30.0;
	31	 35	 0.0239	 0.0599	 0.0007	 64	 64	 64	 1.0	 0.0	 1	 -30.0	 30.0;
	35	 38	 0.0	 0.0001	 0.0	 9900.0	 9900.0	 9900.0	 1.0	 0.0	 1	 -30.0	 30.0;
	35	 44	 0.0615	 0.1591	 0.0024	 65	 65	 65	 1.0	 0.0	 1	 -30.0	 30.0;
	35	 54	 0.0399	 0.1001	 0.0011	 64	 64	 64	 1.0	 0.0	 1	 -30.0	 30.0;
	39	 41	 0.00023	 0.00222	 0.00329	 401	 401	 401	 1.0	 0.0	 1	 -30.0	 30.0;
	39	 48	 0.00019	 0.00178	 0.00263	 395	 395	 395	 1.0	 0.0	 1	 -30.0	 30.0;
	39	 57	 0.00187	 0.01776	 0.02631	 398	 398	 398	 1.0	 0.0	 1	 -30.0	 30.0;
	40	 47	 0.00055	 0.00324	 0.00018	 190	 190	 190	 1.0	 0.0	 1	 -30.0	 30.0;
	41	 46	 0.0054	 0.03262	 0.04616	 321	 321	 321	 1.0	 0.0	 1	 -30.0	 30.0;
	41	 57	 0.00255	 0.01541	 0.0218	 321	 321	 321	 1.0	 0.0	 1	 -30.0	 30.0;
	41	 75	 0.0009	 0.00852	 0.01259	 397	 397	 397	 1.0	 0.0	 1	 -30.0	 30.0;
	49	 55	 0.00068	 0.00191	 0.02173	 134	 134	 134	 1.0	 0.0	 1	 -30.0	 30.0;
	49	 58	 0.00677	 0.01915	 0.19623	 134	 134	 134	 1.0	 0.0	 1	 -30.0	 30.0;
	55	 56	 0.0083	 0.03772	 0.00758	 168	 168	 168	 1.0	 0.0	 1	 -30.0	 30.0;
	56	 69	 0.00352	 0.00996	 0.10204	 134	 134	 134	 1.0	 0.0	 1	 -30.0	 30.0;
	57	 71	 0.00208	 0.01308	 0.01975	 327	 327	 327	 1.0	 0.0	 1	 -30.0	 30.0;
	57	 71	 0.00208	 0.01308	 0.01975	 327	 327	 327	 1.0	 0.0	 1	 -30.0	 30.0;
	57	 76	 0.0088	 0.0534	 0.076	 321	 321	 321	 1.0	 0.0	 1	 -30.0	 30.0;
	58	 59	 0.0038	 0.0084	 0.0219	 119	 119	 119	 1.0	 0.0	 1	 -30.0	 30.0;
	58	 69	 0.0046	 0.017	 0.0033	 152	 152	 152	 1.0	 0.0	 1	 -30.0	 30.0;
	59	 82	 0.0005	 0.0023	 0.0325	 169	 169	 169	 1.0	 0.0	 1	 -30.0	 30.0;
	61	 71	 0.00041	 0.00262	 0.0046	 329	 329	 329	 1.0	 0.0	 1	 -30.0	 30.0;
	62	 71	 0.00041	 0.00262	 0.0046	 329	 329	 329	 1.0	 0.0	 1	 -30.0	 30.0;
	64	 71	 0.00041	 0.00262	 0.0046	 329	 329	 329	 1.0	 0.0	 1	 -30.0	 30.0;
	66	 71	 0.00041	 0.00262	 0.0046	 329	 329	 329	 1.0	 0.0	 1	 -30.0	 30.0;
	69	 84	 0.0032	 0.0057	 0.1054	 108	 108	 108	 1.0	 0.0	 1	 -30.0	 30.0;
	71	 75	 0.0022	 0.0212	 0.0321	 400	 400	 400	 1.0	 0.0	 1	 -30.0	 30.0;
	72	 73	 0.0011	 0.0046	 0.001	 162	 162	 162	 1.0	 0.0	 1	 -30.0	 30.0;
	72	 92	 0.00465	 0.01776	 0.00547	 155	 155	 155	 1.0	 0.0	 1	 -30.0	 30.0;
	72	 93	 0.0253	 0.101	 0.0219	 158	 158	 158	 1.0	 0.0	 1	 -30.0	 30.0;
	76	 80	 0.0007	 0.004	 0.0061	 312	 312	 312	 1.0	 0.0	 1	 -30.0	 30.0;
	76	 81	 0.0004	 0.00377	 0.00557	 396	 396	 396	 1.0	 0.0	 1	 -30.0	 30.0;
	76	 81	 0.00039	 0.0037	 0.00547	 397	 397	 397	 1.0	 0.0	 1	 -30.0	 30.0;
	77	 103	 0.0106	 0.0476	 0.00985	 167	 167	 167	 1.0	 0.0	 1	 -30.0	 30.0;
	82	 86	 0.00196	 0.00418	 0.04905	 117	 117	 117	 1.0	 0.0	 1	 -30.0	 30.0;
	88	 90	 0.00402	 0.00674	 0.10825	 105	 105	 105	 1.0	 0.0	 1	 -30.0	 30.0;
	90	 92	 0.0001	 0.00042	 0.00591	 162	 162	 162	 1.0	 0.0	 1	 -30.0	 30.0;
	93	 96	 0.00354	 0.0214	 0.00392	 193	 193	 193	 1.0	 0.0	 1	 -30.0	 30.0;
	94	 96	 0.0029	 0.01159	 0.00251	 158	 158	 158	 1.0	 0.0	 1	 -30.0	 30.0;
	96	 97	 0.00583	 0.03524	 0.00646	 193	 193	 193	 1.0	 0.0	 1	 -30.0	 30.0;
	103	 119	 0.0409	 0.1829	 0.03775	 167	 167	 167	 1.0	 0.0	 1	 -30.0	 30.0;
	109	 113	 0.0248	 0.1112	 0.0227	 167	 167	 167	 1.0	 0.0	 1	 -30.0	 30.0;
	109	 119	 0.0178	 0.08	 0.01636	 167	 167	 167	 1.0	 0.0	 1	 -30.0	 30.0;
	113	 115	 0.0429	 0.1927	 0.03945	 161	 161	 161	 1.0	 0.0	 1	 -30.0	 30.0;
	119	 123	 0.0385	 0.1727	 0.0356	 167	 167	 167	 1.0	 0.0	 1	 -30.0	 30.0;
	123	 125	 0.018	 0.0797	 0.0159	 166	 166	 166	 1.0	 0.0	 1	 -30.0	 30.0;
	125	 130	 0.0169	 0.075	 0.0153	 166	 166	 166	 1.0	 0.0	 1	 -30.0	 30.0;
	130	 132	 0.0839	 0.2156	 0.0427	 128	 128	 128	 1.0	 0.0	 1	 -30.0	 30.0;
	132	 137	 0.0435	 0.1952	 0.04	 158	 158	 158	 1.0	 0.0	 1	 -30.0	 30.0;
	133	 143	 0.35284	 0.5564	 0.005	 48	 48	 48	 1.0	 0.0	 1	 -30.0	 30.0;
	137	 176	 0.06485	 0.29293	 0.06014	 106	 106	 106	 1.0	 0.0	 1	 -30.0	 30.0;
	141	 142	 0.0	 0.0001	 0.0	 9900.0	 9900.0	 9900.0	 1.0	 0.0	 1	 -30.0	 30.0;
	155	 157	 0.01419	 0.01638	 0.10193	 88	 88	 88	 1.0	 0.0	 1	 -30.0	 30.0;
	155	 158	 0.01663	 0.07017	 0.01485	 162	 162	 162	 1.0	 0.0	 1	 -30.0	 30.0;
	155	 161	 0.0264	 0.11823	 0.0242	 167	 167	 167	 1.0	 0.0	 1	 -30.0	 30.0;
	155	 176	 0.01322	 0.04968	 0.08516	 154	 154	 154	 1.0	 0.0	 1	 -30.0	 30.0;
	159	 185	 0.30532	 0.5096	 0.003	 52	 52	 52	 1.0	 0.0	 1	 -30.0	 30.0;
	161	 166	 0.0399	 0.1791	 0.0367	 167	 167	 167	 1.0	 0.0	 1	 -30.0	 30.0;
	166	 170	 0.0	 -0.40174	 0.0	 79	 79	 79	 1.0	 0.0	 1	 -30.0	 30.0;
	170	 172	 0.0883	 0.4	 0.0838	 78	 78	 78	 1.0	 0.0	 1	 -30.0	 30.0;
	177	 188	 0.00219	 0.03499	 0.0818	 510	 510	 510	 1.0	 0.0	 1	 -30.0	 30.0;
	188	 189	 0.0	 0.0001	 0.0	 9900.0	 9900.0	 9900.0	 1.0	 0.0	 1	 -30.0	 30.0;
	1	 2	 0.00481	 0.14783	 0.0	 214	 214	 214	 1.0	 0.0	 1	 -30.0	 30.0;
	1	 3	 0.00481	 0.14783	 0.0	 214	 214	 214	 1.0	 0.0	 1	 -30.0	 30.0;
	1	 4	 0.00292	 0.113	 0.0	 280	 280	 280	 1.0	 0.0	 1	 -30.0	 30.0;
	5	 2	 0.01616	 0.101	 0.0	 309	 309	 309	 1.0	 0.0	 1	 -30.0	 30.0;
	6	 3	 0.01616	 0.101	 0.0	 309	 309	 309	 1.0	 0.0	 1	 -30.0	 30.0;
	7	 8	 0.00373	 0.129	 0.0	 245	 245	 245	 1.0	 0.0	 1	 -30.0	 30.0;
	7	 9	 0.00373	 0.129	 0.0	 245	 245	 245	 1.0	 0.0	 1	 -30.0	 30.0;
	7	 10	 0.00373	 0.129	 0.0	 245	 245	 245	 1.0	 0.0	 1	 -30.0	 30.0;
	7	 11	 0.002	 0.1081	 0.0	 293	 293	 293	 1.0	 0.0	 1	 -30.0	 30.0;
	12	 13	 0.00444	 0.15	 0.0	 211	 211	 211	 1.0	 0.0	 1	 -30.0	 30.0;
	12	 14	 0.00444	 0.15	 0.0	 211	 211	 211	 1.0	 0.0	 1	 -30.0	 30.0;
	15	 16	 0.0064	 0.1285	 0.0	 246	 246	 246	 1.0	 0.0	 1	 -30.0	 30.0;
	17	 18	 0.00637	 0.12825	 0.0	 246	 246	 246	 1.0	 0.0	 1	 -30.0	 30.0;
	17	 19	 0.00637	 0.12825	 0.0	 246	 246	 246	 1.0	 0.0	 1	 -30.0	 30.0;
	25	 26	 0.00258	 0.126	 0.0	 251	 251	 251	 1.0	 0.0	 1	 -30.0	 30.0;
	26	 27	 0.00823	 0.1094	 0.0	 288	 288	 288	 1.0	 0.0	 1	 -30.0	 30.0;
	26	 28	 0.0081	 0.1098	 0.0	 287	 287	 287	 1.0	 0.0	 1	 -30.0	 30.0;
	26	 29	 0.00519	 0.099	 0.0	 319	 319	 319	 1.0	 0.0	 1	 -30.0	 30.0;
	26	 30	 0.00583	 0.1167	 0.0	 271	 271	 271	 1.0	 0.0	 1	 -30.0	 30.0;
	31	 32	 0.0035	 0.119	 0.0	 266	 266	 266	 1.0	 0.0	 1	 -30.0	 30.0;
	31	 33	 0.0035	 0.119	 0.0	 266	 266	 266	 1.0	 0.0	 1	 -30.0	 30.0;
	31	 34	 0.00049	 0.11797	 0.0	 268	 268	 268	 1.0	 0.0	 1	 -30.0	 30.0;
	35	 36	 0.00425	 0.0649	 0.0	 486	 486	 486	 1.0	 0.0	 1	 -30.0	 30.0;
	35	 37	 0.16	 1.6	 0.0	 20	 20	 20	 1.0	 0.0	 1	 -30.0	 30.0;
	39	 40	 0.0011	 0.0525	 0.0	 602	 602	 602	 1.0	 0.0	 1	 -30.0	 30.0;
	41	 42	 0.0064	 0.1285	 0.0	 246	 246	 246	 1.0	 0.0	 1	 -30.0	 30.0;
	41	 43	 0.0064	 0.1285	 0.0	 246	 246	 246	 1.0	 0.0	 1	 -30.0	 30.0;
	44	 45	 0.05	 0.1	 0.0	 283	 283	 283	 1.0	 0.0	 1	 -30.0	 30.0;
	49	 50	 0.00522	 0.07661	 0.0	 412	 412	 412	 1.0	 0.0	 1	 -30.0	 30.0;
	49	 51	 0.00522	 0.07661	 0.0	 412	 412	 412	 1.0	 0.0	 1	 -30.0	 30.0;
	49	 52	 0.00522	 0.07661	 0.0	 412	 412	 412	 1.0	 0.0	 1	 -30.0	 30.0;
	49	 53	 0.00522	 0.07661	 0.0	 412	 412	 412	 1.0	 0.0	 1	 -30.0	 30.0;
	57	 58	 0.0011	 0.0427	 0.0	 740	 740	 740	 1.0	 0.0	 1	 -30.0	 30.0;
	61	 60	 0.002	 0.0515	 0.0	 613	 613	 613	 1.0	 0.0	 1	 -30.0	 30.0;
	62	 63	 0.00256	 0.12	 0.0	 264	 264	 264	 1.0	 0.0	 1	 -30.0	 30.0;
	64	 65	 0.00256	 0.12	 0.0	 264	 264	 264	 1.0	 0.0	 1	 -30.0	 30.0;
	66	 67	 0.00256	 0.12	 0.0	 264	 264	 264	 1.0	 0.0	 1	 -30.0	 30.0;
	66	 68	 0.00256	 0.12	 0.0	 264	 264	 264	 1.0	 0.0	 1	 -30.0	 30.0;
	69	 70	 0.0027	 0.06	 0.0	 526	 526	 526	 1.0	 0.0	 1	 -30.0	 30.0;
	71	 72	 0.0011	 0.06	 0.0	 527	 527	 527	 1.0	 0.0	 1	 -30.0	 30.0;
	73	 74	 0.01	 0.1	 0.0	 315	 315	 315	 1.0	 0.0	 1	 -30.0	 30.0;
	76	 77	 0.0018	 0.0608	 0.0	 520	 520	 520	 1.0	 0.0	 1	 -30.0	 30.0;
	77	 78	 0.00378	 0.0806	 0.0	 392	 392	 392	 1.0	 0.0	 1	 -30.0	 30.0;
	78	 79	 0.015	 0.27	 0.0	 117	 117	 117	 1.0	 0.0	 1	 -30.0	 30.0;
	82	 83	 0.0015	 0.0031	 0.0	 9173	 9173	 9173	 1.0	 0.0	 1	 -30.0	 30.0;
	85	 84	 0.003	 0.06	 0.0	 526	 526	 526	 1.0	 0.0	 1	 -30.0	 30.0;
	87	 86	 0.003	 0.06	 0.0	 526	 526	 526	 1.0	 0.0	 1	 -30.0	 30.0;
	89	 88	 0.0036	 0.072	 0.0	 439	 439	 439	 1.0	 0.0	 1	 -30.0	 30.0;
	91	 90	 0.0036	 0.072	 0.0	 439	 439	 439	 1.0	 0.0	 1	 -30.0	 30.0;
	94	 95	 0.00615	 0.12	 0.0	 263	 263	 263	 1.0	 0.0	 1	 -30.0	 30.0;
	94	 102	 0.00615	 0.12	 0.0	 263	 263	 263	 1.0	 0.0	 1	 -30.0	 30.0;
	97	 98	 0.00282	 0.09414	 0.0	 336	 336	 336	 1.0	 0.0	 1	 -30.0	 30.0;
	97	 99	 0.00282	 0.09414	 0.0	 336	 336	 336	 1.0	 0.0	 1	 -30.0	 30.0;
	97	 100	 0.0042	 0.14004	 0.0	 226	 226	 226	 1.0	 0.0	 1	 -30.0	 30.0;
	97	 101	 0.0042	 0.14004	 0.0	 226	 226	 226	 1.0	 0.0	 1	 -30.0	 30.0;
	103	 104	 0.00347	 0.115	 0.0	 275	 275	 275	 1.0	 0.0	 1	 -30.0	 30.0;
	104	 105	 0.006	 0.06	 0.0	 524	 524	 524	 1.0	 0.0	 1	 -30.0	 30.0;
	104	 107	 0.0044	 0.072	 0.0	 438	 438	 438	 1.0	 0.0	 1	 -30.0	 30.0;
	105	 106	 0.0045	 0.045	 0.0	 699	 699	 699	 1.0	 0.0	 1	 -30.0	 30.0;
	105	 108	 0.0044	 0.072	 0.0	 438	 438	 438	 1.0	 0.0	 1	 -30.0	 30.0;
	109	 110	 0.00635	 0.0987	 0.0	 320	 320	 320	 1.0	 0.0	 1	 -30.0	 30.0;
	110	 111	 0.0045	 0.045	 0.0	 699	 699	 699	 1.0	 0.0	 1	 -30.0	 30.0;
	110	 112	 0.0044	 0.072	 0.0	 438	 438	 438	 1.0	 0.0	 1	 -30.0	 30.0;
	113	 114	 0.00477	 0.0917	 0.0	 344	 344	 344	 1.0	 0.0	 1	 -30.0	 30.0;
	115	 116	 0.00447	 0.1218	 0.0	 260	 260	 260	 1.0	 0.0	 1	 -30.0	 30.0;
	116	 118	 0.00536	 0.13302	 0.0	 238	 238	 238	 1.0	 0.0	 1	 -30.0	 30.0;
	117	 118	 0.00431	 0.07931	 0.0	 398	 398	 398	 1.0	 0.0	 1	 -30.0	 30.0;
	119	 120	 0.00552	 0.0987	 0.0	 320	 320	 320	 1.0	 0.0	 1	 -30.0	 30.0;
	120	 121	 0.004	 0.04	 0.0	 786	 786	 786	 1.0	 0.0	 1	 -30.0	 30.0;
	120	 122	 0.0044	 0.072	 0.0	 438	 438	 438	 1.0	 0.0	 1	 -30.0	 30.0;
	123	 124	 0.00535	 0.12914	 0.0	 245	 245	 245	 1.0	 0.0	 1	 -30.0	 30.0;
	125	 126	 0.00297	 0.1051	 0.0	 301	 301	 301	 1.0	 0.0	 1	 -30.0	 30.0;
	125	 127	 0.00297	 0.1051	 0.0	 301	 301	 301	 1.0	 0.0	 1	 -30.0	 30.0;
	126	 128	 0.0006	 0.06	 0.0	 62	 62	 62	 1.0	 0.0	 1	 -30.0	 30.0;
	127	 129	 0.0006	 0.06	 0.0	 62	 62	 62	 1.0	 0.0	 1	 -30.0	 30.0;
	130	 131	 0.00499	 0.1432	 0.0	 221	 221	 221	 1.0	 0.0	 1	 -30.0	 30.0;
	132	 133	 0.00492	 0.1179	 0.0	 268	 268	 268	 1.0	 0.0	 1	 -30.0	 30.0;
	133	 134	 0.008	 0.08	 0.0	 393	 393	 393	 1.0	 0.0	 1	 -30.0	 30.0;
	134	 135	 0.006	 0.06	 0.0	 524	 524	 524	 1.0	 0.0	 1	 -30.0	 30.0;
	134	 136	 0.00011	 0.0018	 0.0	 26	 26	 26	 1.0	 0.0	 1	 -30.0	 30.0;
	137	 138	 0.0042	 0.14004	 0.0	 226	 226	 226	 1.0	 0.0	 1	 -30.0	 30.0;
	137	 139	 0.0042	 0.14044	 0.0	 225	 225	 225	 1.0	 0.0	 1	 -30.0	 30.0;
	138	 140	 0.0044	 0.044	 0.0	 715	 715	 715	 1.0	 0.0	 1	 -30.0	 30.0;
	139	 140	 0.0044	 0.044	 0.0	 715	 715	 715	 1.0	 0.0	 1	 -30.0	 30.0;
	139	 141	 0.00629	 0.06169	 0.0	 21	 21	 21	 1.0	 0.0	 1	 -30.0	 30.0;
	143	 144	 0.00694	 0.13939	 0.0	 227	 227	 227	 1.0	 0.0	 1	 -30.0	 30.0;
	143	 145	 0.0042	 0.0843	 0.0	 375	 375	 375	 1.0	 0.0	 1	 -30.0	 30.0;
	143	 146	 0.01002	 0.10017	 0.0	 314	 314	 314	 1.0	 0.0	 1	 -30.0	 30.0;
	143	 147	 0.012	 0.12	 0.0	 262	 262	 262	 1.0	 0.0	 1	 -30.0	 30.0;
	144	 148	 0.00573	 0.0573	 0.0	 549	 549	 549	 1.0	 0.0	 1	 -30.0	 30.0;
	146	 152	 0.001	 0.01	 0.0	 13	 13	 13	 1.0	 0.0	 1	 -30.0	 30.0;
	147	 149	 0.00573	 0.0573	 0.0	 549	 549	 549	 1.0	 0.0	 1	 -30.0	 30.0;
	148	 152	 0.00573	 0.0573	 0.0	 549	 549	 549	 1.0	 0.0	 1	 -30.0	 30.0;
	149	 153	 0.96	 9.55	 0.0	 4	 4	 4	 1.0	 0.0	 1	 -30.0	 30.0;
	150	 153	 2.667	 26.67	 0.0	 2	 2	 2	 1.0	 0.0	 1	 -30.0	 30.0;
	151	 153	 2.667	 26.67	 0.0	 2	 2	 2	 1.0	 0.0	 1	 -30.0	 30.0;
	152	 153	 0.00288	 0.02865	 0.0	 13	 13	 13	 1.0	 0.0	 1	 -30.0	 30.0;
	152	 154	 2.667	 26.67	 0.0	 2	 2	 2	 1.0	 0.0	 1	 -30.0	 30.0;
	157	 156	 0.00563	 0.12099	 0.0	 261	 261	 261	 1.0	 0.0	 1	 -30.0	 30.0;
	158	 159	 0.00347	 0.115	 0.0	 275	 275	 275	 1.0	 0.0	 1	 -30.0	 30.0;
	159	 160	 0.00011	 0.0018	 0.0	 9900.0	 9900.0	 9900.0	 1.0	 0.0	 1	 -30.0	 30.0;
	161	 163	 0.006	 0.1078	 0.0	 293	 293	 293	 1.0	 0.0	 1	 -30.0	 30.0;
	163	 162	 0.006	 0.06	 0.0	 524	 524	 524	 1.0	 0.0	 1	 -30.0	 30.0;
	162	 164	 0.0044	 0.044	 0.0	 715	 715	 715	 1.0	 0.0	 1	 -30.0	 30.0;
	163	 165	 0.0044	 0.072	 0.0	 438	 438	 438	 1.0	 0.0	 1	 -30.0	 30.0;
	166	 167	 0.00454	 0.1077	 0.0	 294	 294	 294	 1.0	 0.0	 1	 -30.0	 30.0;
	167	 168	 0.0044	 0.044	 0.0	 715	 715	 715	 1.0	 0.0	 1	 -30.0	 30.0;
	167	 169	 0.0044	 0.072	 0.0	 26	 26	 26	 1.0	 0.0	 1	 -30.0	 30.0;
	167	 171	 0.0063	 0.0693	 0.0	 454	 454	 454	 1.0	 0.0	 1	 -30.0	 30.0;
	172	 173	 0.00508	 0.07896	 0.0	 400	 400	 400	 1.0	 0.0	 1	 -30.0	 30.0;
	173	 174	 0.0045	 0.045	 0.0	 699	 699	 699	 1.0	 0.0	 1	 -30.0	 30.0;
	173	 175	 0.0044	 0.072	 0.0	 438	 438	 438	 1.0	 0.0	 1	 -30.0	 30.0;
	177	 176	 0.00363	 0.12	 0.0	 264	 264	 264	 1.0	 0.0	 1	 -30.0	 30.0;
	188	 178	 0.005	 0.12	 0.0	 263	 263	 263	 1.0	 0.0	 1	 -30.0	 30.0;
	188	 179	 0.00501	 0.12	 0.0	 263	 263	 263	 1.0	 0.0	 1	 -30.0	 30.0;
	188	 180	 0.00501	 0.12	 0.0	 263	 263	 263	 1.0	 0.0	 1	 -30.0	 30.0;
...
];

% INFO    : === Translation Options ===
% INFO    : Phase Angle Bound:           30.0 (deg.)
% INFO    : Line Capacity Model:         stat
% INFO    : Gen Active Capacity Model:   stat
% INFO    : Gen Reactive Capacity Model: am50ag
% INFO    : Gen Active Cost Model:       stat
% INFO    : AC OPF Solution File:        nesta_case189_edin.dat.opf.sol
% INFO    : 
% INFO    : === Generator Classification Notes ===
% INFO    : NUC    8   -    19.39
% INFO    : COW    26  -    75.80
% INFO    : NG     1   -     4.81
% INFO    : 
% INFO    : === Generator Active Capacity Stat Model Notes ===
% INFO    : Gen at bus 10 - COW	: Pg=69.3, Pmax=2000.0 -> Pmax=228   samples: 1
% INFO    : Gen at bus 2 - COW	: Pg=90.0, Pmax=2000.0 -> Pmax=115   samples: 1
% WARNING : Failed to find a generator capacity within (90.0-450.0) after 100 samples, using percent increase model
% INFO    : Gen at bus 3 - NUC	: Pg=90.0, Pmax=2000.0 -> Pmax=95   samples: 100
% INFO    : Gen at bus 4 - COW	: Pg=45.0, Pmax=2000.0 -> Pmax=128   samples: 3
% WARNING : Failed to find a generator capacity within (29.01-145.05) after 100 samples, using percent increase model
% INFO    : Gen at bus 8 - NUC	: Pg=29.01, Pmax=2000.0 -> Pmax=30   samples: 100
% INFO    : Gen at bus 9 - COW	: Pg=29.01, Pmax=2000.0 -> Pmax=32   samples: 3
% INFO    : Gen at bus 13 - COW	: Pg=60.0, Pmax=2000.0 -> Pmax=236   samples: 3
% INFO    : Gen at bus 14 - COW	: Pg=60.0, Pmax=2000.0 -> Pmax=164   samples: 1
% INFO    : Gen at bus 16 - COW	: Pg=45.0, Pmax=2000.0 -> Pmax=164   samples: 7
% INFO    : Gen at bus 18 - NG	: Pg=60.0, Pmax=2000.0 -> Pmax=151   samples: 5
% INFO    : Gen at bus 19 - COW	: Pg=60.0, Pmax=2000.0 -> Pmax=124   samples: 3
% INFO    : Gen at bus 27 - COW	: Pg=13.0, Pmax=2000.0 -> Pmax=46   samples: 11
% INFO    : Gen at bus 28 - COW	: Pg=13.0, Pmax=2000.0 -> Pmax=63   samples: 1
% WARNING : Failed to find a generator capacity within (13.0-65.0) after 100 samples, using percent increase model
% INFO    : Gen at bus 29 - NUC	: Pg=13.0, Pmax=2000.0 -> Pmax=13   samples: 100
% INFO    : Gen at bus 32 - COW	: Pg=11.0, Pmax=2000.0 -> Pmax=11   samples: 3
% INFO    : Gen at bus 33 - COW	: Pg=11.0, Pmax=2000.0 -> Pmax=20   samples: 7
% INFO    : Gen at bus 36 - COW	: Pg=14.6, Pmax=2000.0 -> Pmax=52   samples: 19
% WARNING : Failed to find a generator capacity within (40.0-200.0) after 100 samples, using percent increase model
% INFO    : Gen at bus 42 - NUC	: Pg=40.0, Pmax=2000.0 -> Pmax=42   samples: 100
% INFO    : Gen at bus 43 - COW	: Pg=40.0, Pmax=2000.0 -> Pmax=166   samples: 1
% INFO    : Gen at bus 50 - COW	: Pg=30.0, Pmax=2000.0 -> Pmax=72   samples: 5
% INFO    : Gen at bus 51 - COW	: Pg=30.0, Pmax=2000.0 -> Pmax=88   samples: 4
% INFO    : Gen at bus 52 - COW	: Pg=30.0, Pmax=2000.0 -> Pmax=112   samples: 2
% INFO    : Gen at bus 53 - COW	: Pg=30.0, Pmax=2000.0 -> Pmax=111   samples: 1
% INFO    : Gen at bus 98 - COW	: Pg=50.0, Pmax=2000.0 -> Pmax=121   samples: 3
% INFO    : Gen at bus 99 - COW	: Pg=50.0, Pmax=2000.0 -> Pmax=65   samples: 2
% INFO    : Gen at bus 102 - COW	: Pg=60.0, Pmax=2000.0 -> Pmax=218   samples: 2
% INFO    : Gen at bus 104 - COW	: Pg=4.0, Pmax=2000.0 -> Pmax=11   samples: 1
% WARNING : Failed to find a generator capacity within (6.0-30.0) after 100 samples, using percent increase model
% INFO    : Gen at bus 117 - NUC	: Pg=6.0, Pmax=2000.0 -> Pmax=6   samples: 100
% WARNING : Failed to find a generator capacity within (38.0-190.0) after 100 samples, using percent increase model
% INFO    : Gen at bus 126 - NUC	: Pg=38.0, Pmax=2000.0 -> Pmax=40   samples: 100
% INFO    : Gen at bus 127 - COW	: Pg=38.0, Pmax=2000.0 -> Pmax=101   samples: 11
% INFO    : Gen at bus 138 - COW	: Pg=30.0, Pmax=2000.0 -> Pmax=58   samples: 1
% INFO    : Gen at bus 139 - COW	: Pg=30.0, Pmax=2000.0 -> Pmax=95   samples: 3
% INFO    : Gen at bus 142 - COW	: Pg=3.0, Pmax=2000.0 -> Pmax=7   samples: 24
% WARNING : Failed to find a generator capacity within (20.0-100.0) after 100 samples, using percent increase model
% INFO    : Gen at bus 144 - NUC	: Pg=20.0, Pmax=2000.0 -> Pmax=21   samples: 100
% WARNING : Failed to find a generator capacity within (6.0-30.0) after 100 samples, using percent increase model
% INFO    : Gen at bus 186 - NUC	: Pg=6.0, Pmax=2000.0 -> Pmax=6   samples: 100
% INFO    : 
% INFO    : === Generator Reactive Capacity Atmost Max 50 Percent Active Model Notes ===
% INFO    : Gen at bus 8 - NUC	: Pmax 30.0, Qmin -20.0, Qmax 38.0 -> Qmin -15.0, Qmax 15.0
% INFO    : Gen at bus 9 - COW	: Pmax 32.0, Qmin -20.0, Qmax 38.0 -> Qmin -16.0, Qmax 16.0
% INFO    : Gen at bus 29 - NUC	: Pmax 13.0, Qmin -5.0, Qmax 12.6 -> Qmin -5.0, Qmax 7.0
% INFO    : Gen at bus 32 - COW	: Pmax 11.0, Qmin -5.0, Qmax 9.9 -> Qmin -5.0, Qmax 6.0
% INFO    : Gen at bus 42 - NUC	: Pmax 42.0, Qmin -20.0, Qmax 22.0 -> Qmin -20.0, Qmax 21.0
% INFO    : Gen at bus 126 - NUC	: Pmax 40.0, Qmin -12.0, Qmax 22.0 -> Qmin -12.0, Qmax 20.0
% INFO    : Gen at bus 144 - NUC	: Pmax 21.0, Qmin 0.0, Qmax 16.8 -> Qmin 0.0, Qmax 11.0
% INFO    : Gen at bus 186 - NUC	: Pmax 6.0, Qmin 0.0, Qmax 6.0 -> Qmin 0.0, Qmax 3.0
% INFO    : 
% INFO    : === Generator Active Cost Stat Model Notes ===
% INFO    : Updated Generator Cost: COW - 0.0 1.0 0.1 -> 0 0.950261141821 0
% INFO    : Updated Generator Cost: COW - 0.0 1.0 0.1 -> 0 0.410910229915 0
% INFO    : Updated Generator Cost: NUC - 0.0 1.0 0.1 -> 0 0.193324445728 0
% INFO    : Updated Generator Cost: COW - 0.0 1.0 0.1 -> 0 1.08271007076 0
% INFO    : Updated Generator Cost: NUC - 0.0 1.0 0.1 -> 0 0.187727194072 0
% INFO    : Updated Generator Cost: COW - 0.0 1.0 0.1 -> 0 0.685695147054 0
% INFO    : Updated Generator Cost: COW - 0.0 1.0 0.1 -> 0 0.908042980071 0
% INFO    : Updated Generator Cost: COW - 0.0 1.0 0.1 -> 0 0.975514928723 0
% INFO    : Updated Generator Cost: COW - 0.0 1.0 0.1 -> 0 1.03172193875 0
% INFO    : Updated Generator Cost: NG - 0.0 1.0 0.1 -> 0 1.07876789046 0
% INFO    : Updated Generator Cost: COW - 0.0 1.0 0.1 -> 0 0.363147341762 0
% INFO    : Updated Generator Cost: COW - 0.0 1.0 0.1 -> 0 1.0339867707 0
% INFO    : Updated Generator Cost: COW - 0.0 1.0 0.1 -> 0 0.994267351591 0
% INFO    : Updated Generator Cost: NUC - 0.0 1.0 0.1 -> 0 0.200298524672 0
% INFO    : Updated Generator Cost: COW - 0.0 1.0 0.1 -> 0 0.625655970302 0
% INFO    : Updated Generator Cost: COW - 0.0 1.0 0.1 -> 0 0.947924714232 0
% INFO    : Updated Generator Cost: COW - 0.0 1.0 0.1 -> 0 0.523605464516 0
% INFO    : Updated Generator Cost: NUC - 0.0 1.0 0.1 -> 0 0.194501645662 0
% INFO    : Updated Generator Cost: COW - 0.0 1.0 0.1 -> 0 1.05007997601 0
% INFO    : Updated Generator Cost: COW - 0.0 1.0 0.1 -> 0 0.959579643236 0
% INFO    : Updated Generator Cost: COW - 0.0 1.0 0.1 -> 0 1.03621210621 0
% INFO    : Updated Generator Cost: COW - 0.0 1.0 0.1 -> 0 0.812748934658 0
% INFO    : Updated Generator Cost: COW - 0.0 1.0 0.1 -> 0 1.16019126126 0
% INFO    : Updated Generator Cost: COW - 0.0 1.0 0.1 -> 0 0.60764649801 0
% INFO    : Updated Generator Cost: COW - 0.0 1.0 0.1 -> 0 1.0438129645 0
% INFO    : Updated Generator Cost: COW - 0.0 1.0 0.1 -> 0 0.583193289945 0
% INFO    : Updated Generator Cost: COW - 0.0 1.0 0.1 -> 0 1.20429465449 0
% INFO    : Updated Generator Cost: NUC - 0.0 1.0 0.1 -> 0 0.207683187907 0
% INFO    : Updated Generator Cost: NUC - 0.0 1.0 0.1 -> 0 0.255752838723 0
% INFO    : Updated Generator Cost: COW - 0.0 1.0 0.1 -> 0 0.655193832351 0
% INFO    : Updated Generator Cost: COW - 0.0 1.0 0.1 -> 0 0.529207110833 0
% INFO    : Updated Generator Cost: COW - 0.0 1.0 0.1 -> 0 0.810864513637 0
% INFO    : Updated Generator Cost: COW - 0.0 1.0 0.1 -> 0 0.474351602965 0
% INFO    : Updated Generator Cost: NUC - 0.0 1.0 0.1 -> 0 0.19788847207 0
% INFO    : Updated Generator Cost: NUC - 0.0 1.0 0.1 -> 0 0.173390186385 0
% INFO    : 
% INFO    : === Line Capacity Stat Model Notes ===
% INFO    : Updated Thermal Rating: on line 1-7 : Rate A, Rate B, Rate C , 9900.0, 9900.0, 9900.0 -> 321
% INFO    : Updated Thermal Rating: on line 1-17 : Rate A, Rate B, Rate C , 9900.0, 9900.0, 9900.0 -> 476
% INFO    : Updated Thermal Rating: on line 1-21 : Rate A, Rate B, Rate C , 9900.0, 9900.0, 9900.0 -> 334
% INFO    : Updated Thermal Rating: on line 1-46 : Rate A, Rate B, Rate C , 9900.0, 9900.0, 9900.0 -> 321
% WARNING : Updated Thermal Rating Stat Model was larger than UB Model: on 1-71 : 467 , 388
% INFO    : Updated Thermal Rating: on line 1-71 : Rate A, Rate B, Rate C , 9900.0, 9900.0, 9900.0 -> 389
% WARNING : Missing data for branch flow stat model on line 5-6 using max current model : from_basekv=66.0 to_basekv=66.0 r=0.0 x=0.0001
% INFO    : Updated Thermal Rating: on line 5-23 : Rate A, Rate B, Rate C , 9900.0, 9900.0, 9900.0 -> 58
% INFO    : Updated Thermal Rating: on line 6-22 : Rate A, Rate B, Rate C , 9900.0, 9900.0, 9900.0 -> 59
% INFO    : Updated Thermal Rating: on line 7-12 : Rate A, Rate B, Rate C , 9900.0, 9900.0, 9900.0 -> 397
% INFO    : Updated Thermal Rating: on line 7-15 : Rate A, Rate B, Rate C , 9900.0, 9900.0, 9900.0 -> 277
% WARNING : Updated Thermal Rating Stat Model was larger than UB Model: on 11-172 : 166 , 165
% INFO    : Updated Thermal Rating: on line 11-172 : Rate A, Rate B, Rate C , 9900.0, 9900.0, 9900.0 -> 166
% INFO    : Updated Thermal Rating: on line 12-17 : Rate A, Rate B, Rate C , 9900.0, 9900.0, 9900.0 -> 399
% INFO    : Updated Thermal Rating: on line 17-20 : Rate A, Rate B, Rate C , 9900.0, 9900.0, 9900.0 -> 397
% WARNING : Updated Thermal Rating Stat Model was larger than UB Model: on 17-76 : 396 , 294
% INFO    : Updated Thermal Rating: on line 17-76 : Rate A, Rate B, Rate C , 9900.0, 9900.0, 9900.0 -> 295
% INFO    : Updated Thermal Rating: on line 17-76 : Rate A, Rate B, Rate C , 9900.0, 9900.0, 9900.0 -> 395
% INFO    : Updated Thermal Rating: on line 21-25 : Rate A, Rate B, Rate C , 9900.0, 9900.0, 9900.0 -> 333
% INFO    : Updated Thermal Rating: on line 22-24 : Rate A, Rate B, Rate C , 9900.0, 9900.0, 9900.0 -> 47
% INFO    : Updated Thermal Rating: on line 23-24 : Rate A, Rate B, Rate C , 9900.0, 9900.0, 9900.0 -> 60
% INFO    : Updated Thermal Rating: on line 24-44 : Rate A, Rate B, Rate C , 9900.0, 9900.0, 9900.0 -> 50
% INFO    : Updated Thermal Rating: on line 25-57 : Rate A, Rate B, Rate C , 9900.0, 9900.0, 9900.0 -> 333
% INFO    : Updated Thermal Rating: on line 26-40 : Rate A, Rate B, Rate C , 9900.0, 9900.0, 9900.0 -> 127
% INFO    : Updated Thermal Rating: on line 30-35 : Rate A, Rate B, Rate C , 9900.0, 9900.0, 9900.0 -> 64
% INFO    : Updated Thermal Rating: on line 31-35 : Rate A, Rate B, Rate C , 9900.0, 9900.0, 9900.0 -> 64
% WARNING : Missing data for branch flow stat model on line 35-38 using max current model : from_basekv=66.0 to_basekv=66.0 r=0.0 x=0.0001
% INFO    : Updated Thermal Rating: on line 35-44 : Rate A, Rate B, Rate C , 9900.0, 9900.0, 9900.0 -> 65
% INFO    : Updated Thermal Rating: on line 35-54 : Rate A, Rate B, Rate C , 9900.0, 9900.0, 9900.0 -> 64
% INFO    : Updated Thermal Rating: on line 39-41 : Rate A, Rate B, Rate C , 9900.0, 9900.0, 9900.0 -> 401
% INFO    : Updated Thermal Rating: on line 39-48 : Rate A, Rate B, Rate C , 9900.0, 9900.0, 9900.0 -> 395
% INFO    : Updated Thermal Rating: on line 39-57 : Rate A, Rate B, Rate C , 9900.0, 9900.0, 9900.0 -> 398
% INFO    : Updated Thermal Rating: on line 40-47 : Rate A, Rate B, Rate C , 9900.0, 9900.0, 9900.0 -> 190
% INFO    : Updated Thermal Rating: on line 41-46 : Rate A, Rate B, Rate C , 9900.0, 9900.0, 9900.0 -> 321
% INFO    : Updated Thermal Rating: on line 41-57 : Rate A, Rate B, Rate C , 9900.0, 9900.0, 9900.0 -> 321
% INFO    : Updated Thermal Rating: on line 41-75 : Rate A, Rate B, Rate C , 9900.0, 9900.0, 9900.0 -> 397
% INFO    : Updated Thermal Rating: on line 49-55 : Rate A, Rate B, Rate C , 9900.0, 9900.0, 9900.0 -> 134
% INFO    : Updated Thermal Rating: on line 49-58 : Rate A, Rate B, Rate C , 9900.0, 9900.0, 9900.0 -> 134
% INFO    : Updated Thermal Rating: on line 55-56 : Rate A, Rate B, Rate C , 9900.0, 9900.0, 9900.0 -> 168
% INFO    : Updated Thermal Rating: on line 56-69 : Rate A, Rate B, Rate C , 9900.0, 9900.0, 9900.0 -> 134
% INFO    : Updated Thermal Rating: on line 57-71 : Rate A, Rate B, Rate C , 9900.0, 9900.0, 9900.0 -> 327
% INFO    : Updated Thermal Rating: on line 57-71 : Rate A, Rate B, Rate C , 9900.0, 9900.0, 9900.0 -> 327
% INFO    : Updated Thermal Rating: on line 57-76 : Rate A, Rate B, Rate C , 9900.0, 9900.0, 9900.0 -> 321
% INFO    : Updated Thermal Rating: on line 58-59 : Rate A, Rate B, Rate C , 9900.0, 9900.0, 9900.0 -> 119
% INFO    : Updated Thermal Rating: on line 58-69 : Rate A, Rate B, Rate C , 9900.0, 9900.0, 9900.0 -> 152
% INFO    : Updated Thermal Rating: on line 59-82 : Rate A, Rate B, Rate C , 9900.0, 9900.0, 9900.0 -> 169
% INFO    : Updated Thermal Rating: on line 61-71 : Rate A, Rate B, Rate C , 9900.0, 9900.0, 9900.0 -> 329
% INFO    : Updated Thermal Rating: on line 62-71 : Rate A, Rate B, Rate C , 9900.0, 9900.0, 9900.0 -> 329
% INFO    : Updated Thermal Rating: on line 64-71 : Rate A, Rate B, Rate C , 9900.0, 9900.0, 9900.0 -> 329
% INFO    : Updated Thermal Rating: on line 66-71 : Rate A, Rate B, Rate C , 9900.0, 9900.0, 9900.0 -> 329
% INFO    : Updated Thermal Rating: on line 69-84 : Rate A, Rate B, Rate C , 9900.0, 9900.0, 9900.0 -> 108
% INFO    : Updated Thermal Rating: on line 71-75 : Rate A, Rate B, Rate C , 9900.0, 9900.0, 9900.0 -> 400
% INFO    : Updated Thermal Rating: on line 72-73 : Rate A, Rate B, Rate C , 9900.0, 9900.0, 9900.0 -> 162
% INFO    : Updated Thermal Rating: on line 72-92 : Rate A, Rate B, Rate C , 9900.0, 9900.0, 9900.0 -> 155
% INFO    : Updated Thermal Rating: on line 72-93 : Rate A, Rate B, Rate C , 9900.0, 9900.0, 9900.0 -> 158
% INFO    : Updated Thermal Rating: on line 76-80 : Rate A, Rate B, Rate C , 9900.0, 9900.0, 9900.0 -> 312
% INFO    : Updated Thermal Rating: on line 76-81 : Rate A, Rate B, Rate C , 9900.0, 9900.0, 9900.0 -> 396
% INFO    : Updated Thermal Rating: on line 76-81 : Rate A, Rate B, Rate C , 9900.0, 9900.0, 9900.0 -> 397
% INFO    : Updated Thermal Rating: on line 77-103 : Rate A, Rate B, Rate C , 9900.0, 9900.0, 9900.0 -> 167
% INFO    : Updated Thermal Rating: on line 82-86 : Rate A, Rate B, Rate C , 9900.0, 9900.0, 9900.0 -> 117
% INFO    : Updated Thermal Rating: on line 88-90 : Rate A, Rate B, Rate C , 9900.0, 9900.0, 9900.0 -> 105
% INFO    : Updated Thermal Rating: on line 90-92 : Rate A, Rate B, Rate C , 9900.0, 9900.0, 9900.0 -> 162
% INFO    : Updated Thermal Rating: on line 93-96 : Rate A, Rate B, Rate C , 9900.0, 9900.0, 9900.0 -> 193
% INFO    : Updated Thermal Rating: on line 94-96 : Rate A, Rate B, Rate C , 9900.0, 9900.0, 9900.0 -> 158
% INFO    : Updated Thermal Rating: on line 96-97 : Rate A, Rate B, Rate C , 9900.0, 9900.0, 9900.0 -> 193
% INFO    : Updated Thermal Rating: on line 103-119 : Rate A, Rate B, Rate C , 9900.0, 9900.0, 9900.0 -> 167
% INFO    : Updated Thermal Rating: on line 109-113 : Rate A, Rate B, Rate C , 9900.0, 9900.0, 9900.0 -> 167
% INFO    : Updated Thermal Rating: on line 109-119 : Rate A, Rate B, Rate C , 9900.0, 9900.0, 9900.0 -> 167
% WARNING : Updated Thermal Rating Stat Model was larger than UB Model: on 113-115 : 166 , 160
% INFO    : Updated Thermal Rating: on line 113-115 : Rate A, Rate B, Rate C , 9900.0, 9900.0, 9900.0 -> 161
% INFO    : Updated Thermal Rating: on line 119-123 : Rate A, Rate B, Rate C , 9900.0, 9900.0, 9900.0 -> 167
% INFO    : Updated Thermal Rating: on line 123-125 : Rate A, Rate B, Rate C , 9900.0, 9900.0, 9900.0 -> 166
% INFO    : Updated Thermal Rating: on line 125-130 : Rate A, Rate B, Rate C , 9900.0, 9900.0, 9900.0 -> 166
% INFO    : Updated Thermal Rating: on line 130-132 : Rate A, Rate B, Rate C , 9900.0, 9900.0, 9900.0 -> 128
% WARNING : Updated Thermal Rating Stat Model was larger than UB Model: on 132-137 : 166 , 157
% INFO    : Updated Thermal Rating: on line 132-137 : Rate A, Rate B, Rate C , 9900.0, 9900.0, 9900.0 -> 158
% WARNING : Updated Thermal Rating Stat Model was larger than UB Model: on 133-143 : 50 , 47
% INFO    : Updated Thermal Rating: on line 133-143 : Rate A, Rate B, Rate C , 9900.0, 9900.0, 9900.0 -> 48
% WARNING : Updated Thermal Rating Stat Model was larger than UB Model: on 137-176 : 167 , 105
% INFO    : Updated Thermal Rating: on line 137-176 : Rate A, Rate B, Rate C , 9900.0, 9900.0, 9900.0 -> 106
% WARNING : Missing data for branch flow stat model on line 141-142 using max current model : from_basekv=11.0 to_basekv=11.0 r=0.0 x=0.0001
% INFO    : Updated Thermal Rating: on line 155-157 : Rate A, Rate B, Rate C , 9900.0, 9900.0, 9900.0 -> 88
% INFO    : Updated Thermal Rating: on line 155-158 : Rate A, Rate B, Rate C , 9900.0, 9900.0, 9900.0 -> 162
% INFO    : Updated Thermal Rating: on line 155-161 : Rate A, Rate B, Rate C , 9900.0, 9900.0, 9900.0 -> 167
% INFO    : Updated Thermal Rating: on line 155-176 : Rate A, Rate B, Rate C , 9900.0, 9900.0, 9900.0 -> 154
% INFO    : Updated Thermal Rating: on line 159-185 : Rate A, Rate B, Rate C , 9900.0, 9900.0, 9900.0 -> 52
% INFO    : Updated Thermal Rating: on line 161-166 : Rate A, Rate B, Rate C , 9900.0, 9900.0, 9900.0 -> 167
% WARNING : Missing data for branch flow stat model on line 166-170 using max current model : from_basekv=132.0 to_basekv=132.0 r=0.0 x=-0.40174
% INFO    : Updated Thermal Rating: on line 166-170 : Rate A, Rate B, Rate C , 9900.0, 9900.0, 9900.0 -> 79
% WARNING : Updated Thermal Rating Stat Model was larger than UB Model: on 170-172 : 167 , 77
% INFO    : Updated Thermal Rating: on line 170-172 : Rate A, Rate B, Rate C , 9900.0, 9900.0, 9900.0 -> 78
% INFO    : Updated Thermal Rating: on line 177-188 : Rate A, Rate B, Rate C , 9900.0, 9900.0, 9900.0 -> 510
% WARNING : Missing data for branch flow stat model on line 188-189 using max current model : from_basekv=220.0 to_basekv=220.0 r=0.0 x=0.0001
% WARNING : Different basekv values on line 1-2, branch flow stat model using max current model : from_basekv=220.0 to_basekv=13.8 
% INFO    : Updated Thermal Rating: on line 1-2 : Rate A, Rate B, Rate C , 9900.0, 9900.0, 9900.0 -> 214
% WARNING : Different basekv values on line 1-3, branch flow stat model using max current model : from_basekv=220.0 to_basekv=13.8 
% INFO    : Updated Thermal Rating: on line 1-3 : Rate A, Rate B, Rate C , 9900.0, 9900.0, 9900.0 -> 214
% WARNING : Different basekv values on line 1-4, branch flow stat model using max current model : from_basekv=220.0 to_basekv=13.8 
% INFO    : Updated Thermal Rating: on line 1-4 : Rate A, Rate B, Rate C , 9900.0, 9900.0, 9900.0 -> 280
% WARNING : Different basekv values on line 5-2, branch flow stat model using max current model : from_basekv=66.0 to_basekv=13.8 
% INFO    : Updated Thermal Rating: on line 5-2 : Rate A, Rate B, Rate C , 9900.0, 9900.0, 9900.0 -> 309
% WARNING : Different basekv values on line 6-3, branch flow stat model using max current model : from_basekv=66.0 to_basekv=13.8 
% INFO    : Updated Thermal Rating: on line 6-3 : Rate A, Rate B, Rate C , 9900.0, 9900.0, 9900.0 -> 309
% WARNING : Different basekv values on line 7-8, branch flow stat model using max current model : from_basekv=220.0 to_basekv=10.5 
% INFO    : Updated Thermal Rating: on line 7-8 : Rate A, Rate B, Rate C , 9900.0, 9900.0, 9900.0 -> 245
% WARNING : Different basekv values on line 7-9, branch flow stat model using max current model : from_basekv=220.0 to_basekv=10.5 
% INFO    : Updated Thermal Rating: on line 7-9 : Rate A, Rate B, Rate C , 9900.0, 9900.0, 9900.0 -> 245
% WARNING : Different basekv values on line 7-10, branch flow stat model using max current model : from_basekv=220.0 to_basekv=10.5 
% INFO    : Updated Thermal Rating: on line 7-10 : Rate A, Rate B, Rate C , 9900.0, 9900.0, 9900.0 -> 245
% WARNING : Different basekv values on line 7-11, branch flow stat model using max current model : from_basekv=220.0 to_basekv=132.0 
% INFO    : Updated Thermal Rating: on line 7-11 : Rate A, Rate B, Rate C , 9900.0, 9900.0, 9900.0 -> 293
% WARNING : Different basekv values on line 12-13, branch flow stat model using max current model : from_basekv=220.0 to_basekv=13.8 
% INFO    : Updated Thermal Rating: on line 12-13 : Rate A, Rate B, Rate C , 9900.0, 9900.0, 9900.0 -> 211
% WARNING : Different basekv values on line 12-14, branch flow stat model using max current model : from_basekv=220.0 to_basekv=13.8 
% INFO    : Updated Thermal Rating: on line 12-14 : Rate A, Rate B, Rate C , 9900.0, 9900.0, 9900.0 -> 211
% WARNING : Different basekv values on line 15-16, branch flow stat model using max current model : from_basekv=220.0 to_basekv=11.0 
% INFO    : Updated Thermal Rating: on line 15-16 : Rate A, Rate B, Rate C , 9900.0, 9900.0, 9900.0 -> 246
...